Circuit: * Z:\home\javi\github_projects\SimpleDSP\LTSpice\antialising.asc

WARNING: Less than two connections to node NC_01.  This node is used by V1.
Direct Newton iteration for .op point succeeded.

Date: Fri Dec 06 16:39:02 2019
Total elapsed time: 0.065 seconds.

tnom = 27
temp = 27
method = trap
totiter = 3
traniter = 0
tranpoints = 0
accept = 0
rejected = 0
matrix size = 12
fillins = 0
solver = Normal
Matrix Compiler1:      19 opcodes
Matrix Compiler2: 696 bytes object code size
