Circuit: * Z:\home\javi\github_projects\simple_dsp\ltspice\antialising_input_sallenkey.asc

I1: both pins shorted together -- ignoring.
Direct Newton iteration for .op point succeeded.

Date: Wed Dec 11 21:57:56 2019
Total elapsed time: 0.092 seconds.

tnom = 27
temp = 27
method = trap
totiter = 3
traniter = 0
tranpoints = 0
accept = 0
rejected = 0
matrix size = 16
fillins = 5
solver = Normal
Matrix Compiler1:      46 opcodes
Matrix Compiler2: 1.34 KB object code size
