Circuit: * Z:\home\javi\github_projects\simple_dsp\ltspice\antialising_input.asc

WARNING: Less than two connections to node N005.  This node is used by B1.
Direct Newton iteration for .op point succeeded.

Date: Tue Dec 10 20:40:27 2019
Total elapsed time: 0.063 seconds.

tnom = 27
temp = 27
method = trap
totiter = 3
traniter = 0
tranpoints = 0
accept = 0
rejected = 0
matrix size = 13
fillins = 0
solver = Normal
Matrix Compiler1:      24 opcodes
Matrix Compiler2: 789 bytes object code size
