Circuit: * Z:\home\javi\github_projects\simple_dsp\ltspice\antialising_output.asc

WARNING: Less than two connections to node N001.  This node is used by B1.
Direct Newton iteration for .op point succeeded.

Date: Sat Dec 07 23:08:02 2019
Total elapsed time: 0.080 seconds.

tnom = 27
temp = 27
method = trap
totiter = 3
traniter = 0
tranpoints = 0
accept = 0
rejected = 0
matrix size = 8
fillins = 0
solver = Normal
Matrix Compiler1:      12 opcodes
Matrix Compiler2: 438 bytes object code size
