Circuit: * Z:\home\javi\github_projects\SimpleDSP\LTSpice\antialising_input.asc

WARNING: Less than two connections to node N001.  This node is used by B1.
Direct Newton iteration for .op point succeeded.

Date: Fri Dec 06 19:07:46 2019
Total elapsed time: 0.065 seconds.

tnom = 27
temp = 27
method = trap
totiter = 3
traniter = 0
tranpoints = 0
accept = 0
rejected = 0
matrix size = 12
fillins = 0
solver = Normal
Matrix Compiler1:      18 opcodes
Matrix Compiler2: 702 bytes object code size
