Circuit: * Z:\home\javi\github_projects\simple_dsp\ltspice\antialising_input_sallenkey.asc

I1: both pins shorted together -- ignoring.
Direct Newton iteration for .op point succeeded.

Date: Fri Jan 31 19:06:53 2020
Total elapsed time: 0.086 seconds.

tnom = 27
temp = 27
method = trap
totiter = 3
traniter = 0
tranpoints = 0
accept = 0
rejected = 0
matrix size = 16
fillins = 6
solver = Normal
Matrix Compiler1:      49 opcodes
Matrix Compiler2: 1.35 KB object code size
