Circuit: * Z:\home\javi\github_projects\SimpleDSP\LTSpice\antialising_output.asc

WARNING: Less than two connections to node N001.  This node is used by B1.
Direct Newton iteration for .op point succeeded.

Date: Fri Dec 06 16:57:37 2019
Total elapsed time: 0.062 seconds.

tnom = 27
temp = 27
method = trap
totiter = 3
traniter = 0
tranpoints = 0
accept = 0
rejected = 0
matrix size = 10
fillins = 0
solver = Normal
Matrix Compiler1:      15 opcodes
Matrix Compiler2: 570 bytes object code size
