Circuit: * Z:\home\javi\github_projects\simple_dsp\ltspice\antialising_input.asc

WARNING: Less than two connections to node N001.  This node is used by B1.
Direct Newton iteration for .op point succeeded.

Date: Sat Dec 07 22:24:26 2019
Total elapsed time: 0.081 seconds.

tnom = 27
temp = 27
method = trap
totiter = 3
traniter = 0
tranpoints = 0
accept = 0
rejected = 0
matrix size = 12
fillins = 0
solver = Normal
Matrix Compiler1:      18 opcodes
Matrix Compiler2: 702 bytes object code size
